Version 4
SHEET 1 1192 680
WIRE 160 -112 64 -112
WIRE 288 -112 160 -112
WIRE 384 -112 288 -112
WIRE 992 -112 576 -112
WIRE 1136 -112 992 -112
WIRE 64 -32 64 -112
WIRE 160 -32 160 -112
WIRE 992 -32 992 -112
WIRE 288 0 288 -112
WIRE 384 0 288 0
WIRE 1136 64 1136 -112
WIRE 160 112 160 32
WIRE 160 112 -80 112
WIRE 160 128 160 112
WIRE 240 128 160 128
WIRE 992 128 992 32
WIRE 992 128 320 128
WIRE -80 160 -80 112
WIRE 64 160 64 32
WIRE 64 160 0 160
WIRE 64 224 64 160
WIRE 160 224 160 128
WIRE 64 320 64 288
WIRE 160 320 160 288
WIRE 160 320 64 320
WIRE 480 320 480 48
WIRE 480 320 160 320
WIRE 1136 320 1136 144
WIRE 1136 320 480 320
WIRE -80 368 -80 240
WIRE 0 368 0 160
WIRE 0 368 -80 368
WIRE 160 368 0 368
WIRE 160 432 160 368
FLAG 160 432 0
SYMBOL schottky 176 32 R180
WINDOW 0 24 64 Left 2
WINDOW 3 24 0 Left 2
SYMATTR InstName D1
SYMATTR Value BAT54
SYMATTR Description Diode
SYMATTR Type diode
SYMBOL schottky 176 288 R180
WINDOW 0 24 64 Left 2
WINDOW 3 24 0 Left 2
SYMATTR InstName D2
SYMATTR Value BAT54
SYMATTR Description Diode
SYMATTR Type diode
SYMBOL schottky 1008 32 R180
WINDOW 0 24 64 Left 2
WINDOW 3 24 0 Left 2
SYMATTR InstName D3
SYMATTR Value BAT54
SYMATTR Description Diode
SYMATTR Type diode
SYMBOL res 336 112 R90
WINDOW 0 0 56 VBottom 2
WINDOW 3 32 56 VTop 2
SYMATTR InstName R1
SYMATTR Value 330
SYMBOL voltage -80 144 R0
SYMATTR InstName V1
SYMATTR Value 5
SYMBOL schottky 80 32 R180
WINDOW 0 24 64 Left 2
WINDOW 3 24 0 Left 2
SYMATTR InstName D4
SYMATTR Value BAT54
SYMATTR Description Diode
SYMATTR Type diode
SYMBOL schottky 80 288 R180
WINDOW 0 24 64 Left 2
WINDOW 3 24 0 Left 2
SYMATTR InstName D5
SYMATTR Value BAT54
SYMATTR Description Diode
SYMATTR Type diode
SYMBOL res 1120 48 R0
SYMATTR InstName R2
SYMATTR Value 30
SYMBOL PowerProducts\\ADP160-3.3 480 0 R0
SYMATTR InstName U1
TEXT -114 456 Left 2 !.tran 1u
TEXT -888 -80 Left 2 ;The front BAS70SDW has 4 diodes, so can do the front-end of 2 pins.\nSimilarly a single BAS70CDW can handle the back-end of 4 pins.\n \nA total of 30 of these device ($0.03 in quantity each) can do a DIP40.\n \nA SN74S1053 can give us 16 pin front-end protection.
